Version 4
SHEET 1 1720 680
WIRE 544 -384 512 -384
WIRE 624 -384 608 -384
WIRE 1088 -384 1056 -384
WIRE 1168 -384 1152 -384
WIRE -480 -368 -480 -384
WIRE 16 -368 16 -384
WIRE 192 -368 192 -384
WIRE 672 -368 672 -384
WIRE 1216 -368 1216 -384
WIRE -720 -352 -720 -368
WIRE -624 -352 -624 -368
WIRE -480 -352 -480 -368
WIRE 16 -336 16 -368
WIRE -720 -320 -720 -352
WIRE -624 -320 -624 -352
WIRE 256 -304 128 -304
WIRE 512 -304 512 -384
WIRE 528 -304 512 -304
WIRE 624 -304 624 -384
WIRE 624 -304 608 -304
WIRE 928 -304 624 -304
WIRE 1056 -304 1056 -384
WIRE 1072 -304 1056 -304
WIRE 1168 -304 1168 -384
WIRE 1168 -304 1152 -304
WIRE 1424 -304 1168 -304
WIRE 192 -272 192 -368
WIRE 128 -256 128 -304
WIRE 160 -256 128 -256
WIRE 256 -240 256 -304
WIRE 256 -240 224 -240
WIRE 400 -240 256 -240
WIRE 512 -240 512 -304
WIRE 512 -240 480 -240
WIRE 672 -240 672 -368
WIRE 1216 -240 1216 -368
WIRE -768 -224 -800 -224
WIRE -720 -224 -720 -240
WIRE -720 -224 -768 -224
WIRE -624 -224 -624 -240
WIRE -576 -224 -624 -224
WIRE -544 -224 -576 -224
WIRE -112 -224 -192 -224
WIRE -64 -224 -112 -224
WIRE 16 -224 16 -256
WIRE 16 -224 0 -224
WIRE 160 -224 16 -224
WIRE -720 -208 -720 -224
WIRE -624 -208 -624 -224
WIRE -112 -208 -112 -224
WIRE 928 -192 928 -304
WIRE 928 -192 864 -192
WIRE 944 -192 928 -192
WIRE 1056 -192 1056 -304
WIRE 1056 -192 1024 -192
WIRE 1424 -192 1424 -304
WIRE 1424 -192 1408 -192
WIRE -272 -176 -272 -224
WIRE 192 -160 192 -208
WIRE 512 -144 512 -240
WIRE 560 -144 512 -144
WIRE 1056 -144 1056 -192
WIRE 1104 -144 1056 -144
WIRE -720 -128 -720 -144
WIRE -624 -128 -624 -144
WIRE 1504 -128 1408 -128
WIRE 1584 -128 1584 -224
WIRE 1504 -112 1504 -128
WIRE 1536 -112 1504 -112
WIRE 560 -96 544 -96
WIRE 1104 -96 1088 -96
WIRE 16 -80 16 -96
WIRE 192 -80 192 -96
WIRE 16 -64 16 -80
WIRE 1536 -64 1408 -64
WIRE 256 -48 128 -48
WIRE 560 -48 512 -48
WIRE 1104 -48 1056 -48
WIRE 192 -16 192 -80
WIRE 128 0 128 -48
WIRE 160 0 128 0
WIRE 928 0 864 0
WIRE 944 0 928 0
WIRE 1056 0 1056 -48
WIRE 1056 0 1024 0
WIRE 1424 0 1408 0
WIRE 256 16 256 -48
WIRE 256 16 224 16
WIRE 400 16 256 16
WIRE 512 16 512 -48
WIRE 512 16 480 16
WIRE -112 32 -192 32
WIRE -64 32 -112 32
WIRE 16 32 16 16
WIRE 16 32 0 32
WIRE 160 32 16 32
WIRE -112 48 -112 32
WIRE -272 64 -272 32
WIRE 672 64 672 48
WIRE 1216 64 1216 48
WIRE 192 112 192 48
WIRE 512 112 512 16
WIRE 528 112 512 112
WIRE 624 112 608 112
WIRE 928 112 928 0
WIRE 928 112 624 112
WIRE 1056 112 1056 0
WIRE 1088 112 1056 112
WIRE 1184 112 1168 112
WIRE 1424 112 1424 0
WIRE 1424 112 1184 112
WIRE 512 176 512 112
WIRE 544 176 512 176
WIRE 624 176 624 112
WIRE 624 176 608 176
WIRE 1056 176 1056 112
WIRE 1104 176 1056 176
WIRE 1184 176 1184 112
WIRE 1184 176 1168 176
FLAG -480 -368 +5V
FLAG 16 -144 0
FLAG 16 112 0
FLAG 192 -80 +5V
FLAG 192 -160 0
FLAG 192 112 0
FLAG 16 -368 +5V
FLAG 16 -80 +5V
FLAG -480 -272 0
FLAG 672 64 0
FLAG 1216 64 0
FLAG 192 -368 +5V
FLAG 672 -368 +5V
FLAG 1216 -368 +5V
FLAG 1584 -48 0
FLAG 1584 -224 OUT
FLAG -624 -352 +5V
FLAG -576 -224 3V_1
FLAG -624 -128 0
FLAG -112 -128 0
FLAG -112 128 0
FLAG 1088 -96 3V_2
FLAG -720 -352 +5V
FLAG -720 -128 0
FLAG -768 -224 3V_2
FLAG -272 144 0
FLAG -272 -96 0
FLAG 544 -96 3V_1
DATAFLAG 96 -224 ""
DATAFLAG -544 -224 ""
DATAFLAG 336 -240 ""
DATAFLAG 96 32 ""
DATAFLAG 336 16 ""
DATAFLAG -800 -224 ""
SYMBOL OpAmps\\LT6203 192 -240 R0
SYMATTR InstName U1
SYMBOL OpAmps\\LT6203 192 16 R0
SYMATTR InstName U2
SYMBOL voltage -272 -192 R0
WINDOW 123 -107 34 Left 2
WINDOW 39 33 79 Left 2
WINDOW 3 -211 62 Left 2
SYMATTR Value2 AC 10m
SYMATTR Value SINE(0 10m 100k)
SYMATTR InstName V3
SYMBOL res -176 -240 R90
WINDOW 0 0 56 VBottom 2
WINDOW 3 32 56 VTop 2
SYMATTR InstName R1
SYMATTR Value 50
SYMBOL res -288 48 R270
WINDOW 0 32 56 VTop 2
WINDOW 3 0 56 VBottom 2
SYMATTR InstName R2
SYMATTR Value 50
SYMBOL OpAmps\\LTC6404-4 688 -96 R0
SYMATTR InstName U3
SYMBOL OpAmps\\LTC6404-4 1232 -96 R0
SYMATTR InstName U4
SYMBOL res 624 -320 R90
WINDOW 0 0 56 VBottom 2
WINDOW 3 32 56 VTop 2
SYMATTR InstName R13
SYMATTR Value 1k
SYMBOL res 624 96 R90
WINDOW 0 0 56 VBottom 2
WINDOW 3 29 80 VTop 2
SYMATTR InstName R14
SYMATTR Value 1k
SYMBOL res 1184 96 R90
WINDOW 0 0 56 VBottom 2
WINDOW 3 34 80 VTop 2
SYMATTR InstName R15
SYMATTR Value 499
SYMBOL res 1168 -320 R90
WINDOW 0 0 56 VBottom 2
WINDOW 3 32 56 VTop 2
SYMATTR InstName R16
SYMATTR Value 499
SYMBOL voltage -480 -368 R0
WINDOW 123 0 0 Left 0
WINDOW 39 24 28 Left 2
SYMATTR SpiceLine Rser=0
SYMATTR InstName V1
SYMATTR Value 5
SYMBOL res 496 -256 R90
WINDOW 0 0 56 VBottom 2
WINDOW 3 32 56 VTop 2
SYMATTR InstName R7
SYMATTR Value 49.9
SYMBOL res 496 0 R90
WINDOW 0 0 56 VBottom 2
WINDOW 3 32 56 VTop 2
SYMATTR InstName R8
SYMATTR Value 49.9
SYMBOL res 1040 -16 R90
WINDOW 0 0 56 VBottom 2
WINDOW 3 32 56 VTop 2
SYMATTR InstName R9
SYMATTR Value 49.9
SYMBOL res 1040 -208 R90
WINDOW 0 0 56 VBottom 2
WINDOW 3 32 56 VTop 2
SYMATTR InstName R10
SYMATTR Value 49.9
SYMBOL cap 0 -240 R90
WINDOW 0 0 32 VBottom 2
WINDOW 3 32 32 VTop 2
SYMATTR InstName C1
SYMATTR Value 1010n
SYMBOL cap 0 16 R90
WINDOW 0 0 32 VBottom 2
WINDOW 3 32 32 VTop 2
SYMATTR InstName C2
SYMATTR Value 1010n
SYMBOL e 1584 -144 R0
SYMATTR InstName E1
SYMATTR Value 1
SYMBOL res -640 -336 R0
SYMATTR InstName R18
SYMATTR Value 28k
SYMBOL cap -640 -208 R0
SYMATTR InstName C8
SYMATTR Value 10n
SYMBOL res -736 -336 R0
SYMATTR InstName R3
SYMATTR Value 28k
SYMBOL cap -736 -208 R0
SYMATTR InstName C3
SYMATTR Value 10n
SYMBOL res 0 -240 R0
SYMATTR InstName R4
SYMATTR Value 10k
SYMBOL res 0 16 R0
SYMATTR InstName R5
SYMATTR Value 10k
SYMBOL res 0 -352 R0
SYMATTR InstName R6
SYMATTR Value 10k
SYMBOL res 0 -80 R0
SYMATTR InstName R19
SYMATTR Value 10k
SYMBOL res -128 -224 R0
SYMATTR InstName R11
SYMATTR Value 50
SYMBOL res -128 32 R0
SYMATTR InstName R12
SYMATTR Value 50
SYMBOL voltage -272 160 R180
WINDOW 123 44 77 Left 2
WINDOW 39 33 79 Left 2
WINDOW 3 37 51 Left 2
SYMATTR Value2 AC 10m
SYMATTR Value SINE(0 10m 100k)
SYMATTR InstName V2
SYMBOL cap 608 -400 R90
WINDOW 0 0 32 VBottom 2
WINDOW 3 32 32 VTop 2
SYMATTR InstName C4
SYMATTR Value 1.5p
SYMBOL cap 1152 -400 R90
WINDOW 0 0 32 VBottom 2
WINDOW 3 32 32 VTop 2
SYMATTR InstName C5
SYMATTR Value 1.5p
SYMBOL cap 608 160 R90
WINDOW 0 0 32 VBottom 2
WINDOW 3 32 32 VTop 2
SYMATTR InstName C6
SYMATTR Value 1.5p
SYMBOL cap 1168 160 R90
WINDOW 0 0 32 VBottom 2
WINDOW 3 32 32 VTop 2
SYMATTR InstName C7
SYMATTR Value 1.5p
TEXT -776 -8 Left 2 !.ac oct 50 1 100Meg
TEXT -776 24 Left 2 ;.noise V(out) V3 dec 10 100 50Meg
TEXT -776 -40 Left 2 ;.tran 0 50u 0 1u
